<routes>
  <vType id="car" accel="1.0" decel="4.5" length="5.0" minGap="2.5" maxSpeed="13.89"/>
  <vehicle id="v0" type="car" depart="2" departLane="best" departSpeed="0">
    <route edges="E2TL TL2S"/>
  </vehicle>
  <vehicle id="v1" type="car" depart="2" departLane="best" departSpeed="0">
    <route edges="E2TL TL2S"/>
  </vehicle>
  <vehicle id="v2" type="car" depart="3" departLane="best" departSpeed="0">
    <route edges="N2TL TL2E"/>
  </vehicle>
  <vehicle id="v3" type="car" depart="6" departLane="best" departSpeed="0">
    <route edges="N2TL TL2E"/>
  </vehicle>
  <vehicle id="v4" type="car" depart="7" departLane="best" departSpeed="0">
    <route edges="S2TL TL2N"/>
  </vehicle>
  <vehicle id="v5" type="car" depart="13" departLane="best" departSpeed="0">
    <route edges="E2TL TL2S"/>
  </vehicle>
  <vehicle id="v6" type="car" depart="17" departLane="best" departSpeed="0">
    <route edges="S2TL TL2W"/>
  </vehicle>
  <vehicle id="v7" type="car" depart="18" departLane="best" departSpeed="0">
    <route edges="N2TL TL2S"/>
  </vehicle>
  <vehicle id="v8" type="car" depart="18" departLane="best" departSpeed="0">
    <route edges="N2TL TL2E"/>
  </vehicle>
  <vehicle id="v9" type="car" depart="20" departLane="best" departSpeed="0">
    <route edges="W2TL TL2E"/>
  </vehicle>
  <vehicle id="v10" type="car" depart="21" departLane="best" departSpeed="0">
    <route edges="S2TL TL2W"/>
  </vehicle>
  <vehicle id="v11" type="car" depart="21" departLane="best" departSpeed="0">
    <route edges="W2TL TL2N"/>
  </vehicle>
  <vehicle id="v12" type="car" depart="32" departLane="best" departSpeed="0">
    <route edges="E2TL TL2S"/>
  </vehicle>
  <vehicle id="v13" type="car" depart="33" departLane="best" departSpeed="0">
    <route edges="N2TL TL2S"/>
  </vehicle>
  <vehicle id="v14" type="car" depart="35" departLane="best" departSpeed="0">
    <route edges="S2TL TL2W"/>
  </vehicle>
  <vehicle id="v15" type="car" depart="35" departLane="best" departSpeed="0">
    <route edges="W2TL TL2N"/>
  </vehicle>
  <vehicle id="v16" type="car" depart="37" departLane="best" departSpeed="0">
    <route edges="W2TL TL2E"/>
  </vehicle>
  <vehicle id="v17" type="car" depart="37" departLane="best" departSpeed="0">
    <route edges="N2TL TL2S"/>
  </vehicle>
  <vehicle id="v18" type="car" depart="38" departLane="best" departSpeed="0">
    <route edges="N2TL TL2S"/>
  </vehicle>
  <vehicle id="v19" type="car" depart="50" departLane="best" departSpeed="0">
    <route edges="E2TL TL2W"/>
  </vehicle>
  <vehicle id="v20" type="car" depart="60" departLane="best" departSpeed="0">
    <route edges="S2TL TL2W"/>
  </vehicle>
  <vehicle id="v21" type="car" depart="62" departLane="best" departSpeed="0">
    <route edges="S2TL TL2N"/>
  </vehicle>
  <vehicle id="v22" type="car" depart="79" departLane="best" departSpeed="0">
    <route edges="W2TL TL2N"/>
  </vehicle>
  <vehicle id="v23" type="car" depart="83" departLane="best" departSpeed="0">
    <route edges="W2TL TL2N"/>
  </vehicle>
  <vehicle id="v24" type="car" depart="83" departLane="best" departSpeed="0">
    <route edges="N2TL TL2S"/>
  </vehicle>
  <vehicle id="v25" type="car" depart="87" departLane="best" departSpeed="0">
    <route edges="E2TL TL2S"/>
  </vehicle>
  <vehicle id="v26" type="car" depart="99" departLane="best" departSpeed="0">
    <route edges="N2TL TL2S"/>
  </vehicle>
  <vehicle id="v27" type="car" depart="100" departLane="best" departSpeed="0">
    <route edges="W2TL TL2E"/>
  </vehicle>
  <vehicle id="v28" type="car" depart="100" departLane="best" departSpeed="0">
    <route edges="S2TL TL2N"/>
  </vehicle>
  <vehicle id="v29" type="car" depart="109" departLane="best" departSpeed="0">
    <route edges="N2TL TL2E"/>
  </vehicle>
  <vehicle id="v30" type="car" depart="112" departLane="best" departSpeed="0">
    <route edges="N2TL TL2E"/>
  </vehicle>
  <vehicle id="v31" type="car" depart="120" departLane="best" departSpeed="0">
    <route edges="E2TL TL2W"/>
  </vehicle>
  <vehicle id="v32" type="car" depart="127" departLane="best" departSpeed="0">
    <route edges="S2TL TL2W"/>
  </vehicle>
  <vehicle id="v33" type="car" depart="132" departLane="best" departSpeed="0">
    <route edges="E2TL TL2S"/>
  </vehicle>
  <vehicle id="v34" type="car" depart="144" departLane="best" departSpeed="0">
    <route edges="E2TL TL2S"/>
  </vehicle>
  <vehicle id="v35" type="car" depart="144" departLane="best" departSpeed="0">
    <route edges="W2TL TL2E"/>
  </vehicle>
  <vehicle id="v36" type="car" depart="148" departLane="best" departSpeed="0">
    <route edges="W2TL TL2E"/>
  </vehicle>
  <vehicle id="v37" type="car" depart="156" departLane="best" departSpeed="0">
    <route edges="E2TL TL2W"/>
  </vehicle>
  <vehicle id="v38" type="car" depart="163" departLane="best" departSpeed="0">
    <route edges="S2TL TL2N"/>
  </vehicle>
  <vehicle id="v39" type="car" depart="179" departLane="best" departSpeed="0">
    <route edges="N2TL TL2S"/>
  </vehicle>
  <vehicle id="v40" type="car" depart="187" departLane="best" departSpeed="0">
    <route edges="N2TL TL2E"/>
  </vehicle>
  <vehicle id="v41" type="car" depart="196" departLane="best" departSpeed="0">
    <route edges="S2TL TL2N"/>
  </vehicle>
  <vehicle id="v42" type="car" depart="215" departLane="best" departSpeed="0">
    <route edges="E2TL TL2S"/>
  </vehicle>
  <vehicle id="v43" type="car" depart="217" departLane="best" departSpeed="0">
    <route edges="E2TL TL2W"/>
  </vehicle>
  <vehicle id="v44" type="car" depart="226" departLane="best" departSpeed="0">
    <route edges="E2TL TL2S"/>
  </vehicle>
  <vehicle id="v45" type="car" depart="233" departLane="best" departSpeed="0">
    <route edges="N2TL TL2E"/>
  </vehicle>
  <vehicle id="v46" type="car" depart="234" departLane="best" departSpeed="0">
    <route edges="N2TL TL2E"/>
  </vehicle>
  <vehicle id="v47" type="car" depart="236" departLane="best" departSpeed="0">
    <route edges="E2TL TL2W"/>
  </vehicle>
  <vehicle id="v48" type="car" depart="254" departLane="best" departSpeed="0">
    <route edges="E2TL TL2S"/>
  </vehicle>
  <vehicle id="v49" type="car" depart="262" departLane="best" departSpeed="0">
    <route edges="S2TL TL2W"/>
  </vehicle>
  <vehicle id="v50" type="car" depart="274" departLane="best" departSpeed="0">
    <route edges="E2TL TL2W"/>
  </vehicle>
  <vehicle id="v51" type="car" depart="278" departLane="best" departSpeed="0">
    <route edges="N2TL TL2E"/>
  </vehicle>
  <vehicle id="v52" type="car" depart="278" departLane="best" departSpeed="0">
    <route edges="W2TL TL2E"/>
  </vehicle>
  <vehicle id="v53" type="car" depart="304" departLane="best" departSpeed="0">
    <route edges="W2TL TL2N"/>
  </vehicle>
  <vehicle id="v54" type="car" depart="311" departLane="best" departSpeed="0">
    <route edges="W2TL TL2N"/>
  </vehicle>
  <vehicle id="v55" type="car" depart="313" departLane="best" departSpeed="0">
    <route edges="S2TL TL2N"/>
  </vehicle>
  <vehicle id="v56" type="car" depart="324" departLane="best" departSpeed="0">
    <route edges="W2TL TL2N"/>
  </vehicle>
  <vehicle id="v57" type="car" depart="324" departLane="best" departSpeed="0">
    <route edges="W2TL TL2E"/>
  </vehicle>
  <vehicle id="v58" type="car" depart="324" departLane="best" departSpeed="0">
    <route edges="E2TL TL2W"/>
  </vehicle>
  <vehicle id="v59" type="car" depart="324" departLane="best" departSpeed="0">
    <route edges="E2TL TL2S"/>
  </vehicle>
  <vehicle id="v60" type="car" depart="327" departLane="best" departSpeed="0">
    <route edges="W2TL TL2E"/>
  </vehicle>
  <vehicle id="v61" type="car" depart="327" departLane="best" departSpeed="0">
    <route edges="N2TL TL2S"/>
  </vehicle>
  <vehicle id="v62" type="car" depart="346" departLane="best" departSpeed="0">
    <route edges="S2TL TL2N"/>
  </vehicle>
  <vehicle id="v63" type="car" depart="350" departLane="best" departSpeed="0">
    <route edges="N2TL TL2E"/>
  </vehicle>
  <vehicle id="v64" type="car" depart="357" departLane="best" departSpeed="0">
    <route edges="S2TL TL2N"/>
  </vehicle>
  <vehicle id="v65" type="car" depart="369" departLane="best" departSpeed="0">
    <route edges="N2TL TL2E"/>
  </vehicle>
  <vehicle id="v66" type="car" depart="375" departLane="best" departSpeed="0">
    <route edges="S2TL TL2N"/>
  </vehicle>
  <vehicle id="v67" type="car" depart="378" departLane="best" departSpeed="0">
    <route edges="E2TL TL2W"/>
  </vehicle>
  <vehicle id="v68" type="car" depart="387" departLane="best" departSpeed="0">
    <route edges="W2TL TL2E"/>
  </vehicle>
  <vehicle id="v69" type="car" depart="393" departLane="best" departSpeed="0">
    <route edges="S2TL TL2N"/>
  </vehicle>
  <vehicle id="v70" type="car" depart="394" departLane="best" departSpeed="0">
    <route edges="W2TL TL2E"/>
  </vehicle>
  <vehicle id="v71" type="car" depart="397" departLane="best" departSpeed="0">
    <route edges="S2TL TL2N"/>
  </vehicle>
  <vehicle id="v72" type="car" depart="409" departLane="best" departSpeed="0">
    <route edges="E2TL TL2S"/>
  </vehicle>
  <vehicle id="v73" type="car" depart="410" departLane="best" departSpeed="0">
    <route edges="N2TL TL2S"/>
  </vehicle>
  <vehicle id="v74" type="car" depart="418" departLane="best" departSpeed="0">
    <route edges="S2TL TL2W"/>
  </vehicle>
  <vehicle id="v75" type="car" depart="421" departLane="best" departSpeed="0">
    <route edges="S2TL TL2N"/>
  </vehicle>
  <vehicle id="v76" type="car" depart="422" departLane="best" departSpeed="0">
    <route edges="N2TL TL2S"/>
  </vehicle>
  <vehicle id="v77" type="car" depart="422" departLane="best" departSpeed="0">
    <route edges="N2TL TL2S"/>
  </vehicle>
  <vehicle id="v78" type="car" depart="424" departLane="best" departSpeed="0">
    <route edges="N2TL TL2E"/>
  </vehicle>
  <vehicle id="v79" type="car" depart="429" departLane="best" departSpeed="0">
    <route edges="N2TL TL2S"/>
  </vehicle>
  <vehicle id="v80" type="car" depart="437" departLane="best" departSpeed="0">
    <route edges="S2TL TL2W"/>
  </vehicle>
  <vehicle id="v81" type="car" depart="448" departLane="best" departSpeed="0">
    <route edges="N2TL TL2S"/>
  </vehicle>
  <vehicle id="v82" type="car" depart="451" departLane="best" departSpeed="0">
    <route edges="E2TL TL2W"/>
  </vehicle>
  <vehicle id="v83" type="car" depart="460" departLane="best" departSpeed="0">
    <route edges="N2TL TL2E"/>
  </vehicle>
  <vehicle id="v84" type="car" depart="470" departLane="best" departSpeed="0">
    <route edges="N2TL TL2S"/>
  </vehicle>
  <vehicle id="v85" type="car" depart="473" departLane="best" departSpeed="0">
    <route edges="W2TL TL2E"/>
  </vehicle>
  <vehicle id="v86" type="car" depart="477" departLane="best" departSpeed="0">
    <route edges="E2TL TL2S"/>
  </vehicle>
  <vehicle id="v87" type="car" depart="478" departLane="best" departSpeed="0">
    <route edges="W2TL TL2E"/>
  </vehicle>
  <vehicle id="v88" type="car" depart="488" departLane="best" departSpeed="0">
    <route edges="E2TL TL2W"/>
  </vehicle>
  <vehicle id="v89" type="car" depart="491" departLane="best" departSpeed="0">
    <route edges="S2TL TL2W"/>
  </vehicle>
  <vehicle id="v90" type="car" depart="502" departLane="best" departSpeed="0">
    <route edges="W2TL TL2E"/>
  </vehicle>
  <vehicle id="v91" type="car" depart="505" departLane="best" departSpeed="0">
    <route edges="W2TL TL2N"/>
  </vehicle>
  <vehicle id="v92" type="car" depart="506" departLane="best" departSpeed="0">
    <route edges="N2TL TL2E"/>
  </vehicle>
  <vehicle id="v93" type="car" depart="513" departLane="best" departSpeed="0">
    <route edges="W2TL TL2E"/>
  </vehicle>
  <vehicle id="v94" type="car" depart="514" departLane="best" departSpeed="0">
    <route edges="W2TL TL2E"/>
  </vehicle>
  <vehicle id="v95" type="car" depart="518" departLane="best" departSpeed="0">
    <route edges="N2TL TL2S"/>
  </vehicle>
  <vehicle id="v96" type="car" depart="518" departLane="best" departSpeed="0">
    <route edges="N2TL TL2E"/>
  </vehicle>
  <vehicle id="v97" type="car" depart="523" departLane="best" departSpeed="0">
    <route edges="N2TL TL2S"/>
  </vehicle>
  <vehicle id="v98" type="car" depart="524" departLane="best" departSpeed="0">
    <route edges="E2TL TL2W"/>
  </vehicle>
  <vehicle id="v99" type="car" depart="539" departLane="best" departSpeed="0">
    <route edges="W2TL TL2N"/>
  </vehicle>
  <vehicle id="v100" type="car" depart="544" departLane="best" departSpeed="0">
    <route edges="W2TL TL2N"/>
  </vehicle>
  <vehicle id="v101" type="car" depart="556" departLane="best" departSpeed="0">
    <route edges="E2TL TL2S"/>
  </vehicle>
  <vehicle id="v102" type="car" depart="558" departLane="best" departSpeed="0">
    <route edges="W2TL TL2E"/>
  </vehicle>
  <vehicle id="v103" type="car" depart="563" departLane="best" departSpeed="0">
    <route edges="S2TL TL2N"/>
  </vehicle>
  <vehicle id="v104" type="car" depart="577" departLane="best" departSpeed="0">
    <route edges="W2TL TL2E"/>
  </vehicle>
  <vehicle id="v105" type="car" depart="578" departLane="best" departSpeed="0">
    <route edges="S2TL TL2N"/>
  </vehicle>
  <vehicle id="v106" type="car" depart="600" departLane="best" departSpeed="0">
    <route edges="W2TL TL2E"/>
  </vehicle>
  <vehicle id="v107" type="car" depart="604" departLane="best" departSpeed="0">
    <route edges="N2TL TL2S"/>
  </vehicle>
  <vehicle id="v108" type="car" depart="607" departLane="best" departSpeed="0">
    <route edges="E2TL TL2W"/>
  </vehicle>
  <vehicle id="v109" type="car" depart="609" departLane="best" departSpeed="0">
    <route edges="S2TL TL2W"/>
  </vehicle>
  <vehicle id="v110" type="car" depart="618" departLane="best" departSpeed="0">
    <route edges="W2TL TL2N"/>
  </vehicle>
  <vehicle id="v111" type="car" depart="633" departLane="best" departSpeed="0">
    <route edges="S2TL TL2N"/>
  </vehicle>
  <vehicle id="v112" type="car" depart="637" departLane="best" departSpeed="0">
    <route edges="N2TL TL2S"/>
  </vehicle>
  <vehicle id="v113" type="car" depart="643" departLane="best" departSpeed="0">
    <route edges="S2TL TL2W"/>
  </vehicle>
  <vehicle id="v114" type="car" depart="645" departLane="best" departSpeed="0">
    <route edges="W2TL TL2N"/>
  </vehicle>
  <vehicle id="v115" type="car" depart="653" departLane="best" departSpeed="0">
    <route edges="N2TL TL2S"/>
  </vehicle>
  <vehicle id="v116" type="car" depart="655" departLane="best" departSpeed="0">
    <route edges="N2TL TL2E"/>
  </vehicle>
  <vehicle id="v117" type="car" depart="659" departLane="best" departSpeed="0">
    <route edges="E2TL TL2S"/>
  </vehicle>
  <vehicle id="v118" type="car" depart="660" departLane="best" departSpeed="0">
    <route edges="E2TL TL2S"/>
  </vehicle>
  <vehicle id="v119" type="car" depart="660" departLane="best" departSpeed="0">
    <route edges="S2TL TL2W"/>
  </vehicle>
  <vehicle id="v120" type="car" depart="665" departLane="best" departSpeed="0">
    <route edges="E2TL TL2S"/>
  </vehicle>
  <vehicle id="v121" type="car" depart="668" departLane="best" departSpeed="0">
    <route edges="S2TL TL2W"/>
  </vehicle>
  <vehicle id="v122" type="car" depart="681" departLane="best" departSpeed="0">
    <route edges="N2TL TL2S"/>
  </vehicle>
  <vehicle id="v123" type="car" depart="689" departLane="best" departSpeed="0">
    <route edges="S2TL TL2W"/>
  </vehicle>
  <vehicle id="v124" type="car" depart="693" departLane="best" departSpeed="0">
    <route edges="S2TL TL2W"/>
  </vehicle>
  <vehicle id="v125" type="car" depart="694" departLane="best" departSpeed="0">
    <route edges="S2TL TL2W"/>
  </vehicle>
  <vehicle id="v126" type="car" depart="695" departLane="best" departSpeed="0">
    <route edges="S2TL TL2W"/>
  </vehicle>
  <vehicle id="v127" type="car" depart="698" departLane="best" departSpeed="0">
    <route edges="W2TL TL2E"/>
  </vehicle>
  <vehicle id="v128" type="car" depart="703" departLane="best" departSpeed="0">
    <route edges="S2TL TL2N"/>
  </vehicle>
  <vehicle id="v129" type="car" depart="720" departLane="best" departSpeed="0">
    <route edges="W2TL TL2E"/>
  </vehicle>
  <vehicle id="v130" type="car" depart="727" departLane="best" departSpeed="0">
    <route edges="W2TL TL2N"/>
  </vehicle>
  <vehicle id="v131" type="car" depart="735" departLane="best" departSpeed="0">
    <route edges="N2TL TL2S"/>
  </vehicle>
  <vehicle id="v132" type="car" depart="736" departLane="best" departSpeed="0">
    <route edges="S2TL TL2W"/>
  </vehicle>
  <vehicle id="v133" type="car" depart="745" departLane="best" departSpeed="0">
    <route edges="W2TL TL2N"/>
  </vehicle>
  <vehicle id="v134" type="car" depart="748" departLane="best" departSpeed="0">
    <route edges="W2TL TL2N"/>
  </vehicle>
  <vehicle id="v135" type="car" depart="754" departLane="best" departSpeed="0">
    <route edges="S2TL TL2N"/>
  </vehicle>
  <vehicle id="v136" type="car" depart="756" departLane="best" departSpeed="0">
    <route edges="S2TL TL2W"/>
  </vehicle>
  <vehicle id="v137" type="car" depart="760" departLane="best" departSpeed="0">
    <route edges="E2TL TL2W"/>
  </vehicle>
  <vehicle id="v138" type="car" depart="768" departLane="best" departSpeed="0">
    <route edges="S2TL TL2W"/>
  </vehicle>
  <vehicle id="v139" type="car" depart="768" departLane="best" departSpeed="0">
    <route edges="S2TL TL2W"/>
  </vehicle>
  <vehicle id="v140" type="car" depart="776" departLane="best" departSpeed="0">
    <route edges="E2TL TL2S"/>
  </vehicle>
  <vehicle id="v141" type="car" depart="782" departLane="best" departSpeed="0">
    <route edges="N2TL TL2S"/>
  </vehicle>
  <vehicle id="v142" type="car" depart="782" departLane="best" departSpeed="0">
    <route edges="E2TL TL2S"/>
  </vehicle>
  <vehicle id="v143" type="car" depart="783" departLane="best" departSpeed="0">
    <route edges="N2TL TL2E"/>
  </vehicle>
  <vehicle id="v144" type="car" depart="787" departLane="best" departSpeed="0">
    <route edges="N2TL TL2S"/>
  </vehicle>
  <vehicle id="v145" type="car" depart="788" departLane="best" departSpeed="0">
    <route edges="N2TL TL2E"/>
  </vehicle>
  <vehicle id="v146" type="car" depart="793" departLane="best" departSpeed="0">
    <route edges="E2TL TL2S"/>
  </vehicle>
  <vehicle id="v147" type="car" depart="794" departLane="best" departSpeed="0">
    <route edges="E2TL TL2W"/>
  </vehicle>
  <vehicle id="v148" type="car" depart="797" departLane="best" departSpeed="0">
    <route edges="N2TL TL2S"/>
  </vehicle>
  <vehicle id="v149" type="car" depart="802" departLane="best" departSpeed="0">
    <route edges="W2TL TL2N"/>
  </vehicle>
  <vehicle id="v150" type="car" depart="802" departLane="best" departSpeed="0">
    <route edges="W2TL TL2N"/>
  </vehicle>
  <vehicle id="v151" type="car" depart="802" departLane="best" departSpeed="0">
    <route edges="E2TL TL2W"/>
  </vehicle>
  <vehicle id="v152" type="car" depart="803" departLane="best" departSpeed="0">
    <route edges="N2TL TL2S"/>
  </vehicle>
  <vehicle id="v153" type="car" depart="804" departLane="best" departSpeed="0">
    <route edges="W2TL TL2E"/>
  </vehicle>
  <vehicle id="v154" type="car" depart="804" departLane="best" departSpeed="0">
    <route edges="E2TL TL2S"/>
  </vehicle>
  <vehicle id="v155" type="car" depart="806" departLane="best" departSpeed="0">
    <route edges="E2TL TL2W"/>
  </vehicle>
  <vehicle id="v156" type="car" depart="809" departLane="best" departSpeed="0">
    <route edges="W2TL TL2E"/>
  </vehicle>
  <vehicle id="v157" type="car" depart="810" departLane="best" departSpeed="0">
    <route edges="S2TL TL2N"/>
  </vehicle>
  <vehicle id="v158" type="car" depart="812" departLane="best" departSpeed="0">
    <route edges="W2TL TL2N"/>
  </vehicle>
  <vehicle id="v159" type="car" depart="817" departLane="best" departSpeed="0">
    <route edges="W2TL TL2E"/>
  </vehicle>
  <vehicle id="v160" type="car" depart="826" departLane="best" departSpeed="0">
    <route edges="E2TL TL2W"/>
  </vehicle>
  <vehicle id="v161" type="car" depart="829" departLane="best" departSpeed="0">
    <route edges="N2TL TL2E"/>
  </vehicle>
  <vehicle id="v162" type="car" depart="831" departLane="best" departSpeed="0">
    <route edges="W2TL TL2E"/>
  </vehicle>
  <vehicle id="v163" type="car" depart="839" departLane="best" departSpeed="0">
    <route edges="N2TL TL2E"/>
  </vehicle>
  <vehicle id="v164" type="car" depart="840" departLane="best" departSpeed="0">
    <route edges="S2TL TL2N"/>
  </vehicle>
  <vehicle id="v165" type="car" depart="840" departLane="best" departSpeed="0">
    <route edges="W2TL TL2E"/>
  </vehicle>
  <vehicle id="v166" type="car" depart="850" departLane="best" departSpeed="0">
    <route edges="E2TL TL2W"/>
  </vehicle>
  <vehicle id="v167" type="car" depart="856" departLane="best" departSpeed="0">
    <route edges="N2TL TL2E"/>
  </vehicle>
  <vehicle id="v168" type="car" depart="862" departLane="best" departSpeed="0">
    <route edges="S2TL TL2N"/>
  </vehicle>
  <vehicle id="v169" type="car" depart="866" departLane="best" departSpeed="0">
    <route edges="E2TL TL2W"/>
  </vehicle>
  <vehicle id="v170" type="car" depart="870" departLane="best" departSpeed="0">
    <route edges="N2TL TL2E"/>
  </vehicle>
  <vehicle id="v171" type="car" depart="879" departLane="best" departSpeed="0">
    <route edges="S2TL TL2N"/>
  </vehicle>
  <vehicle id="v172" type="car" depart="884" departLane="best" departSpeed="0">
    <route edges="E2TL TL2S"/>
  </vehicle>
  <vehicle id="v173" type="car" depart="889" departLane="best" departSpeed="0">
    <route edges="N2TL TL2S"/>
  </vehicle>
  <vehicle id="v174" type="car" depart="894" departLane="best" departSpeed="0">
    <route edges="E2TL TL2S"/>
  </vehicle>
  <vehicle id="v175" type="car" depart="896" departLane="best" departSpeed="0">
    <route edges="N2TL TL2S"/>
  </vehicle>
  <vehicle id="v176" type="car" depart="907" departLane="best" departSpeed="0">
    <route edges="E2TL TL2S"/>
  </vehicle>
  <vehicle id="v177" type="car" depart="909" departLane="best" departSpeed="0">
    <route edges="E2TL TL2W"/>
  </vehicle>
  <vehicle id="v178" type="car" depart="915" departLane="best" departSpeed="0">
    <route edges="W2TL TL2N"/>
  </vehicle>
  <vehicle id="v179" type="car" depart="915" departLane="best" departSpeed="0">
    <route edges="W2TL TL2N"/>
  </vehicle>
  <vehicle id="v180" type="car" depart="923" departLane="best" departSpeed="0">
    <route edges="E2TL TL2W"/>
  </vehicle>
  <vehicle id="v181" type="car" depart="926" departLane="best" departSpeed="0">
    <route edges="S2TL TL2W"/>
  </vehicle>
  <vehicle id="v182" type="car" depart="938" departLane="best" departSpeed="0">
    <route edges="N2TL TL2E"/>
  </vehicle>
  <vehicle id="v183" type="car" depart="975" departLane="best" departSpeed="0">
    <route edges="S2TL TL2N"/>
  </vehicle>
  <vehicle id="v184" type="car" depart="990" departLane="best" departSpeed="0">
    <route edges="E2TL TL2W"/>
  </vehicle>
  <vehicle id="v185" type="car" depart="1002" departLane="best" departSpeed="0">
    <route edges="E2TL TL2W"/>
  </vehicle>
  <vehicle id="v186" type="car" depart="1002" departLane="best" departSpeed="0">
    <route edges="N2TL TL2S"/>
  </vehicle>
  <vehicle id="v187" type="car" depart="1008" departLane="best" departSpeed="0">
    <route edges="N2TL TL2E"/>
  </vehicle>
  <vehicle id="v188" type="car" depart="1015" departLane="best" departSpeed="0">
    <route edges="N2TL TL2S"/>
  </vehicle>
  <vehicle id="v189" type="car" depart="1028" departLane="best" departSpeed="0">
    <route edges="W2TL TL2E"/>
  </vehicle>
  <vehicle id="v190" type="car" depart="1031" departLane="best" departSpeed="0">
    <route edges="W2TL TL2N"/>
  </vehicle>
  <vehicle id="v191" type="car" depart="1032" departLane="best" departSpeed="0">
    <route edges="W2TL TL2N"/>
  </vehicle>
  <vehicle id="v192" type="car" depart="1038" departLane="best" departSpeed="0">
    <route edges="N2TL TL2E"/>
  </vehicle>
  <vehicle id="v193" type="car" depart="1040" departLane="best" departSpeed="0">
    <route edges="S2TL TL2N"/>
  </vehicle>
  <vehicle id="v194" type="car" depart="1041" departLane="best" departSpeed="0">
    <route edges="S2TL TL2N"/>
  </vehicle>
  <vehicle id="v195" type="car" depart="1057" departLane="best" departSpeed="0">
    <route edges="N2TL TL2S"/>
  </vehicle>
  <vehicle id="v196" type="car" depart="1061" departLane="best" departSpeed="0">
    <route edges="S2TL TL2W"/>
  </vehicle>
  <vehicle id="v197" type="car" depart="1074" departLane="best" departSpeed="0">
    <route edges="E2TL TL2W"/>
  </vehicle>
  <vehicle id="v198" type="car" depart="1081" departLane="best" departSpeed="0">
    <route edges="W2TL TL2E"/>
  </vehicle>
  <vehicle id="v199" type="car" depart="1082" departLane="best" departSpeed="0">
    <route edges="W2TL TL2N"/>
  </vehicle>
  <vehicle id="v200" type="car" depart="1082" departLane="best" departSpeed="0">
    <route edges="E2TL TL2W"/>
  </vehicle>
  <vehicle id="v201" type="car" depart="1084" departLane="best" departSpeed="0">
    <route edges="E2TL TL2S"/>
  </vehicle>
  <vehicle id="v202" type="car" depart="1094" departLane="best" departSpeed="0">
    <route edges="E2TL TL2S"/>
  </vehicle>
  <vehicle id="v203" type="car" depart="1095" departLane="best" departSpeed="0">
    <route edges="N2TL TL2S"/>
  </vehicle>
  <vehicle id="v204" type="car" depart="1102" departLane="best" departSpeed="0">
    <route edges="N2TL TL2E"/>
  </vehicle>
  <vehicle id="v205" type="car" depart="1103" departLane="best" departSpeed="0">
    <route edges="S2TL TL2N"/>
  </vehicle>
  <vehicle id="v206" type="car" depart="1108" departLane="best" departSpeed="0">
    <route edges="N2TL TL2E"/>
  </vehicle>
  <vehicle id="v207" type="car" depart="1108" departLane="best" departSpeed="0">
    <route edges="E2TL TL2S"/>
  </vehicle>
  <vehicle id="v208" type="car" depart="1109" departLane="best" departSpeed="0">
    <route edges="S2TL TL2N"/>
  </vehicle>
  <vehicle id="v209" type="car" depart="1120" departLane="best" departSpeed="0">
    <route edges="E2TL TL2W"/>
  </vehicle>
  <vehicle id="v210" type="car" depart="1137" departLane="best" departSpeed="0">
    <route edges="E2TL TL2W"/>
  </vehicle>
  <vehicle id="v211" type="car" depart="1144" departLane="best" departSpeed="0">
    <route edges="S2TL TL2W"/>
  </vehicle>
  <vehicle id="v212" type="car" depart="1152" departLane="best" departSpeed="0">
    <route edges="N2TL TL2S"/>
  </vehicle>
  <vehicle id="v213" type="car" depart="1168" departLane="best" departSpeed="0">
    <route edges="N2TL TL2S"/>
  </vehicle>
  <vehicle id="v214" type="car" depart="1179" departLane="best" departSpeed="0">
    <route edges="W2TL TL2E"/>
  </vehicle>
  <vehicle id="v215" type="car" depart="1183" departLane="best" departSpeed="0">
    <route edges="W2TL TL2N"/>
  </vehicle>
  <vehicle id="v216" type="car" depart="1196" departLane="best" departSpeed="0">
    <route edges="S2TL TL2N"/>
  </vehicle>
  <vehicle id="v217" type="car" depart="1203" departLane="best" departSpeed="0">
    <route edges="W2TL TL2N"/>
  </vehicle>
  <vehicle id="v218" type="car" depart="1209" departLane="best" departSpeed="0">
    <route edges="N2TL TL2E"/>
  </vehicle>
  <vehicle id="v219" type="car" depart="1213" departLane="best" departSpeed="0">
    <route edges="W2TL TL2E"/>
  </vehicle>
  <vehicle id="v220" type="car" depart="1214" departLane="best" departSpeed="0">
    <route edges="N2TL TL2S"/>
  </vehicle>
  <vehicle id="v221" type="car" depart="1226" departLane="best" departSpeed="0">
    <route edges="S2TL TL2W"/>
  </vehicle>
  <vehicle id="v222" type="car" depart="1233" departLane="best" departSpeed="0">
    <route edges="E2TL TL2W"/>
  </vehicle>
  <vehicle id="v223" type="car" depart="1234" departLane="best" departSpeed="0">
    <route edges="S2TL TL2N"/>
  </vehicle>
  <vehicle id="v224" type="car" depart="1236" departLane="best" departSpeed="0">
    <route edges="W2TL TL2E"/>
  </vehicle>
  <vehicle id="v225" type="car" depart="1250" departLane="best" departSpeed="0">
    <route edges="E2TL TL2W"/>
  </vehicle>
  <vehicle id="v226" type="car" depart="1251" departLane="best" departSpeed="0">
    <route edges="E2TL TL2W"/>
  </vehicle>
  <vehicle id="v227" type="car" depart="1256" departLane="best" departSpeed="0">
    <route edges="E2TL TL2S"/>
  </vehicle>
  <vehicle id="v228" type="car" depart="1269" departLane="best" departSpeed="0">
    <route edges="N2TL TL2S"/>
  </vehicle>
  <vehicle id="v229" type="car" depart="1274" departLane="best" departSpeed="0">
    <route edges="S2TL TL2N"/>
  </vehicle>
  <vehicle id="v230" type="car" depart="1278" departLane="best" departSpeed="0">
    <route edges="N2TL TL2S"/>
  </vehicle>
  <vehicle id="v231" type="car" depart="1281" departLane="best" departSpeed="0">
    <route edges="E2TL TL2W"/>
  </vehicle>
  <vehicle id="v232" type="car" depart="1284" departLane="best" departSpeed="0">
    <route edges="S2TL TL2W"/>
  </vehicle>
  <vehicle id="v233" type="car" depart="1305" departLane="best" departSpeed="0">
    <route edges="W2TL TL2N"/>
  </vehicle>
  <vehicle id="v234" type="car" depart="1310" departLane="best" departSpeed="0">
    <route edges="E2TL TL2S"/>
  </vehicle>
  <vehicle id="v235" type="car" depart="1315" departLane="best" departSpeed="0">
    <route edges="N2TL TL2S"/>
  </vehicle>
  <vehicle id="v236" type="car" depart="1316" departLane="best" departSpeed="0">
    <route edges="N2TL TL2E"/>
  </vehicle>
  <vehicle id="v237" type="car" depart="1317" departLane="best" departSpeed="0">
    <route edges="S2TL TL2N"/>
  </vehicle>
  <vehicle id="v238" type="car" depart="1319" departLane="best" departSpeed="0">
    <route edges="W2TL TL2N"/>
  </vehicle>
  <vehicle id="v239" type="car" depart="1320" departLane="best" departSpeed="0">
    <route edges="S2TL TL2N"/>
  </vehicle>
  <vehicle id="v240" type="car" depart="1331" departLane="best" departSpeed="0">
    <route edges="E2TL TL2S"/>
  </vehicle>
  <vehicle id="v241" type="car" depart="1340" departLane="best" departSpeed="0">