<?xml version="1.0" encoding="UTF-8"?>
<sumoConfiguration xmlns:xsi="http://www.w3.org/2001/XMLSchema-instance" xsi:noNamespaceSchemaLocation="http://sumo.dlr.de/xsd/sumoConfiguration.xsd">
    <input>
        <net-file value="c:/Users/INDIA/dql-traffic-signal/intersection/environment.net.xml"/>
        <route-files value="c:/Users/INDIA/dql-traffic-signal/intersection/episode_routes.rou.xml"/>
    </input>
    <time>
        <begin value="0"/>
        <end value="5400"/>
    </time>
    <processing>
        <time-to-teleport value="-1"/>
    </processing>
</sumoConfiguration>